Codes/PVCBGI/IEEE13TEST.dss
// Define a new circuit
Clear
Set DefaultBaseFrequency=60
New Circuit.IEEE13Nodeckt
~ basekV=115 pu=1.0001 phases=3 bus1=SourceBus
~ Angle=30
~ MVASC3=20000 MVASC1=21000
// Substation transformer definitions
New Transformer.Sub Phases=3 Windings=2 XHL=8
~ wdg=1 bus=SourceBus conn=delta kV=115 kVA=5000 %r=0.5
~ wdg=2 bus=650 conn=wye kV=4.16 kVA=5000 %r=0.5
// Voltage regulator definitions
New Transformer.Reg1 phases=1 bank=reg1 XHL=0.01 kVAs=[1666 1666]
~ Buses=[650.1 RG60.1] kVs=[2.4 2.4]
New Transformer.Reg2 phases=1 bank=reg1 XHL=0.01 kVAs=[1666 1666]
~ Buses=[650.2 RG60.2] kVs=[2.4 2.4]
New Transformer.Reg3 phases=1 bank=reg1 XHL=0.01 kVAs=[1666 1666]
~ Buses=[650.3 RG60.3] kVs=[2.4 2.4]
New Regcontrol.Reg1 Transformer=Reg1 winding=2 vreg=122 band=2 ptratio=20 ctprim=700 R=3 X=9
New Regcontrol.Reg2 Transformer=Reg2 winding=2 vreg=122 band=2 ptratio=20 ctprim=700 R=3 X=9
New Regcontrol.Reg3 Transformer=Reg3 winding=2 vreg=122 band=2 ptratio=20 ctprim=700 R=3 X=9
New Transformer.Gen Phases=3 Windings=2 XHL=2
~ wdg=1 bus=633 conn=wye kV=4.16 kVA=500 %r=0.55
~ wdg=2 bus=634 conn=wye kV=0.48 kVA=500 %r=0.55
// Generator definitions
//New "Generator.windgen1" bus1=634 kv=0.48 kW=400 conn=delta kVA=500.000 H=6 duty=None
//~ model=6 pf=1.000 xdp=0.192
//~ UserModel=IndMach012a UserData=(rs=0.048 xs=0.075 rr=0.018 xr=0.12 xm=3.8 option=variableslip)
//New "Generator.windgen1" bus1=634 kv=0.48 kW=400 conn=delta kVA=500.000 H=6 duty=None pf=1.000 xdp=0.192
New "Generator.mypv" bus1=634 kv=0.48 kW=400 conn=delta kVA=500.000
~ model=6
~ UserModel=PVCB UserData={kFP=0.000005 TcFP=0.2}
// Linecode definitions
New Linecode.mtx601 nphases=3 BaseFreq=60
~ Rmatrix=[0.3465 |0.1560 0.3375 |0.1580 0.1535 0.3414]
~ Xmatrix=[1.0179 |0.5017 1.0478 |0.4236 0.3849 1.0348]
~ Unit=mi
New Linecode.mtx602 nphases=3 BaseFreq=60
~ Rmatrix=[0.7526 |0.1580 0.7475 |0.1560 0.1535 0.7436]
~ Xmatrix=[1.1814 |0.4236 1.1983 |0.5017 0.3849 1.2112]
~ Unit=mi
New Linecode.mtx603 nphases=2 BaseFreq=60
~ Rmatrix=[1.3294 |0.2066 1.3238]
~ Xmatrix=[1.3471 |0.4591 1.3569]
~ Unit=mi
New Linecode.mtx604 nphases=2 BaseFreq=60
~ Rmatrix=[1.3238 |0.2066 1.3294]
~ Xmatrix=[1.3569 |0.4591 1.3471]
~ Unit=mi
New Linecode.mtx605 nphases=1 BaseFreq=60
~ Rmatrix=(1.3292)
~ Xmatrix=(1.3475)
~ Unit=mi
New Linecode.mtx606 nphases=3 BaseFreq=60
~ Rmatrix=[0.7982 |0.3192 0.7891 |0.2849 0.3192 0.7982]
~ Xmatrix=[0.4463 |0.0328 0.4041 |-0.0143 0.0328 0.4463]
~ Cmatrix=[257.01 |0 257.01 |0 0 257.01]
~ Unit=mi
New Linecode.mtx607 nphases=1 BaseFreq=60
~ Rmatrix=(1.3425)
~ Xmatrix=(0.5124)
~ Cmatrix=[236.06]
~ Unit=mi
// Line definitions
New Line.632645 Phases=2 Bus1=632.2.3 Bus2=645.2.3 LineCode=mtx603 Length=500 Units=ft
New Line.632633 Phases=3 Bus1=632.1.2.3 Bus2=633.1.2.3 LineCode=mtx602 Length=500 Units=ft
New Line.645646 Phases=2 Bus1=645.2.3 Bus2=646.2.3 LineCode=mtx603 Length=300 Units=ft
New Line.RG60632 Phases=3 Bus1=RG60.1.2.3 Bus2=632.1.2.3 LineCode=mtx601 Length=2000 Units=ft
New Line.684652 Phases=1 Bus1=684.1 Bus2=652.1 LineCode=mtx607 Length=800 Units=ft
New Line.632671 Phases=3 Bus1=632.1.2.3 Bus2=671.1.2.3 LineCode=mtx601 Length=2000 Units=ft
New Line.671684 Phases=2 Bus1=671.1.3 Bus2=684.1.3 LineCode=mtx604 Length=300 Units=ft
New Line.671680 Phases=3 Bus1=671.1.2.3 Bus2=680.1.2.3 LineCode=mtx601 Length=1000 Units=ft
New Line.684611 Phases=1 Bus1=684.3 Bus2=611.3 LineCode=mtx605 Length=300 Units=ft
New Line.692675 Phases=3 Bus1=692.1.2.3 Bus2=675.1.2.3 LineCode=mtx606 Length=500 Units=ft
// Load definitions
New Load.634a Bus1=634.1 Phases=1 Conn=wye Model=1 kV=0.277 kW=160 kVar=110
New Load.634b Bus1=634.2 Phases=1 Conn=wye Model=1 kV=0.277 kW=120 kVar=90
New Load.634c Bus1=634.3 Phases=1 Conn=wye Model=1 kV=0.277 kW=120 kVar=90
New Load.645 Bus1=645.2 Phases=1 Conn=wye Model=1 kV=2.4 kW=170 kVar=125
New Load.646 Bus1=646.2 Phases=1 Conn=delta Model=2 kV=4.16 kW=230 kVar=132
New Load.652 Bus1=652.1 Phases=1 Conn=wye Model=2 kV=2.4 kW=128 kVar=86
New Load.671 Bus1=671.1.2.3 Phases=3 Conn=delta Model=1 kV=4.16 kW=1155 kVar=660
New Load.675a Bus1=675.1 Phases=1 Conn=wye Model=1 kV=2.4 kW=485 kVar=190
New Load.675b Bus1=675.2 Phases=1 Conn=wye Model=1 kV=2.4 kW=68 kVar=60
New Load.675c Bus1=675.3 Phases=1 Conn=wye Model=1 kV=2.4 kW=290 kVar=212
New Load.692 Bus1=692.3 Phases=1 Conn=delta Model=5 kV=4.16 kW=170 kVar=151
New Load.611 Bus1=611.3 Phases=1 Conn=wye Model=5 kV=2.4 kW=170 kVar=80
// Capacitor definitions
New Capacitor.Cap1 Bus1=675 phases=3 kVar=600 kV=4.16
New Capacitor.Cap2 Bus1=611.3 phases=1 kVar=100 kV=2.4
// Switch definitions
New Line.671692 phases=3 Bus1=671 Bus2=692 Switch=y r1=1e-4 r0=1e-4 x1=0.000 x0=0.000 c1=0.000 c0=0.000
// New Monitors
New Monitor.mypv Generator.mypv Term=1 Mode=3
New Monitor.mypv0 Generator.mypv Term=1 Mode=0
New Monitor.mypv1 Generator.mypv Term=1 Mode=1 PPolar=False
//New Monitor.windgen1 Generator.windgen1 Term=1 Mode=3
// Solve
Set Voltagebases=[115,4.16,.48]
calcv
Solve

Set mode=dynamics h=0.00016 number=1000 
//Set mode=snap
Solve

! Then the fault happens at bus RG60
New Fault.myFault phases=3 bus1=RG60

set number=70
solve

! The fault is cleared
Fault.myFault.enabled=False
! Goes for another 200 ms to bring the system back
set number=200
solve

BusCoords IEEE13Node_BusXY.csv
// Show
Show Voltage LN Nodes
Show Currents Elem
Show Powers kVA Elem
Show Losses
Show Taps
// Visualization
Visualize what=currents element=Line.632633
Visualize what=voltages element=Line.632633
Export monitors mypv mypv0 mypv1
//Plot monitor object= mypv channels=(2 )
Set markCapacitors=yes capMarkersize=3
Set markRegulators=yes RegMarkersize=5
AddBusMarker Bus=632 code=34 color=Red size=3
Plot Circuit Power Max=2000 dots=y labels=n C1=Blue 1ph=3
Plot Circuit Losses Max=0.02 dots=y labels=n subs=n C1=Blue
ClearBusMarkers
